test_network/Sim_files_190128_OK_V0/RunDss/neutral_ind.txt
New Reactor.grnd1 phases=1 bus1=31.4 bus2=31.0 R=5 X=0.01 
New Reactor.grnd2 phases=1 bus1=32.4 bus2=32.0 R=5 X=0.01 
New Reactor.grnd3 phases=1 bus1=33.4 bus2=33.0 R=5 X=0.01 
New Reactor.grnd4 phases=1 bus1=34.4 bus2=34.0 R=5 X=0.01 
New Reactor.grnd5 phases=1 bus1=35.4 bus2=35.0 R=5 X=0.01 
New Reactor.grnd6 phases=1 bus1=36.4 bus2=36.0 R=5 X=0.01 
New Reactor.grnd7 phases=1 bus1=37.4 bus2=37.0 R=5 X=0.01 
New Reactor.grnd8 phases=1 bus1=38.4 bus2=38.0 R=5 X=0.01 
New Reactor.grnd9 phases=1 bus1=39.4 bus2=39.0 R=5 X=0.01 
New Reactor.grnd10 phases=1 bus1=40.4 bus2=40.0 R=5 X=0.01 
New Reactor.grnd11 phases=1 bus1=41.4 bus2=41.0 R=5 X=0.01 
New Reactor.grnd12 phases=1 bus1=42.4 bus2=42.0 R=5 X=0.01 
New Reactor.grnd13 phases=1 bus1=43.4 bus2=43.0 R=5 X=0.01 
New Reactor.grnd14 phases=1 bus1=44.4 bus2=44.0 R=5 X=0.01 
New Reactor.grnd15 phases=1 bus1=45.4 bus2=45.0 R=5 X=0.01 
New Reactor.grnd16 phases=1 bus1=46.4 bus2=46.0 R=5 X=0.01 
New Reactor.grnd17 phases=1 bus1=47.4 bus2=47.0 R=5 X=0.01 
New Reactor.grnd18 phases=1 bus1=48.4 bus2=48.0 R=5 X=0.01 
New Reactor.grnd19 phases=1 bus1=49.4 bus2=49.0 R=5 X=0.01 
New Reactor.grnd20 phases=1 bus1=50.4 bus2=50.0 R=5 X=0.01 
New Reactor.grnd21 phases=1 bus1=51.4 bus2=51.0 R=5 X=0.01 
New Reactor.grnd22 phases=1 bus1=52.4 bus2=52.0 R=5 X=0.01 
New Reactor.grnd23 phases=1 bus1=53.4 bus2=53.0 R=5 X=0.01 
New Reactor.grnd24 phases=1 bus1=54.4 bus2=54.0 R=5 X=0.01 
New Reactor.grnd25 phases=1 bus1=55.4 bus2=55.0 R=5 X=0.01 
New Reactor.grnd26 phases=1 bus1=56.4 bus2=56.0 R=5 X=0.01 
New Reactor.grnd27 phases=1 bus1=57.4 bus2=57.0 R=5 X=0.01 
New Reactor.grnd28 phases=1 bus1=58.4 bus2=58.0 R=5 X=0.01 
New Reactor.grnd29 phases=1 bus1=59.4 bus2=59.0 R=5 X=0.01 
New Reactor.grnd30 phases=1 bus1=60.4 bus2=60.0 R=5 X=0.01 
